ver_1.2
     RDKit          2D

  1  0  0  0  0  0  0  0  0  0999 V2000
    0.0000    0.0000    0.0000 C   0  0  0  0  0  0  0  0  0  0  0  0
M  END
>  <submitter_name>  (1)
Alessandro Contini

>  <submitter_email>  (1)
alessandro.contini@unimi.it

>  <submitter_institution>  (1)
Universtity of Milan

>  <generation_date>  (1)
2020-04-19

>  <method>  (1)
Nwat MM-GBSA covalent run 1

>  <original SMILES>  (1)
molecule smiles

>  <ref_url>  (1)
https://discuss.postera.ai/t/results-from-nwat-mmgbsa-workflow-on-covalent-warheads/1225

>  <ref_mols>  (1)
reference molecules

>  <ref_pdb>  (1)
All ligands were evaluated against Mpro-x0830_0

>  <Name>  (1)
Moonshot compound ID (text)

>  <ChemPlp>  (1)
ChemPlp score from PLANTS docking (float)

>  <MM-GBSA Nwat=0>  (1)
Nwat MM-GBSA with 0 waters (float)

>  <STDEV0>  (1)
Std Dev for 0 waters (float)

>  <MM-GBSA Nwat=30>  (1)
Nwat MM-GBSA with 30 waters (float)

>  <STDEV30>  (1)
Std Dev for 30 waters (float)

>  <MM-GBSA Nwat=60>  (1)
Nwat MM-GBSA with 60 waters (float)

>  <STDEV60>  (1)
Std Dev for 60 waters (float)

>  <ST.DEV < 10%>  (1)
Is the Std Dev less than 10% for the nwat=30 data (boolean)

>  <RMSD LIG < 2>  (1)
Is the RMSD of the ligand over the MD run less that 2A (boolean)

>  <DIST < 5>  (1)
In the docking pose is the distance of the warhead to the Cys145 thiol less than 5A (boolean)

>  <DIST < 3.5>  (1)
In the docking pose is the distance of the warhead to the Cys145 thiol less than 3.5A (boolean)

$$$$
PAU-WEI-b9b69149-9
     RDKit          3D

 38 41  0  0  1  0  0  0  0  0999 V2000
    6.3480   -7.5080   33.2000 C   0  0  0  0  0  0  0  0  0  0  0  0
    6.2830   -6.6860   31.9240 C   0  0  0  0  0  0  0  0  0  0  0  0
    6.7580   -5.5850   31.8940 O   0  0  0  0  0  0  0  0  0  0  0  0
    5.6810   -7.2030   30.8060 N   0  0  0  0  0  0  0  0  0  0  0  0
    5.6180   -6.4080   29.5710 C   0  0  0  0  0  0  0  0  0  0  0  0
    7.0260   -6.0320   29.1390 C   0  0  0  0  0  0  0  0  0  0  0  0
    6.9620   -4.8630   28.1680 C   0  0  0  0  0  0  0  0  0  0  0  0
    5.9460   -3.9550   28.0940 C   0  0  0  0  0  0  0  0  0  0  0  0
    6.2570   -3.0700   27.1030 N   0  0  0  0  0  0  0  0  0  0  0  0
    7.4620   -3.4230   26.5640 C   0  0  0  0  0  0  0  0  0  0  0  0
    8.1810   -2.8260   25.5360 C   0  0  0  0  0  0  0  0  0  0  0  0
    7.6440   -1.5880   24.8360 C   0  0  0  0  0  0  0  0  0  0  0  0
    8.4850   -0.3830   25.2240 C   0  0  0  0  0  0  0  0  0  0  0  0
    9.8240   -0.4480   24.5090 C   0  0  0  0  0  0  0  0  0  0  0  0
   10.4070    0.9520   24.3960 C   0  0  0  0  0  0  0  0  0  0  0  0
   11.7760    1.1090   24.2010 C   0  0  0  0  0  0  0  0  0  0  0  0
   12.3140    2.3870   24.0950 C   0  0  0  0  0  0  0  0  0  0  0  0
   11.4750    3.4930   24.1850 C   0  0  0  0  0  0  0  0  0  0  0  0
   12.0580    4.8920   24.0700 C   0  0  0  0  0  0  0  0  0  0  0  0
   13.3000    4.8170   23.6010 F   0  0  0  0  0  0  0  0  0  0  0  0
   11.3130    5.6150   23.2380 F   0  0  0  0  0  0  0  0  0  0  0  0
   12.0700    5.4680   25.2680 F   0  0  0  0  0  0  0  0  0  0  0  0
   10.1070    3.3370   24.3810 C   0  0  0  0  0  0  0  0  0  0  0  0
    9.5690    2.0580   24.4880 C   0  0  0  0  0  0  0  0  0  0  0  0
    7.7070   -1.7820   23.3810 N   0  0  0  0  0  0  0  0  0  0  0  0
    6.9560   -3.0120   23.0780 C   0  0  0  0  0  0  0  0  0  0  0  0
    6.9100   -3.2950   21.5840 C   0  0  0  0  0  0  0  0  0  0  0  0
    6.5860   -2.0830   20.8140 N   0  0  0  0  0  0  0  0  0  0  0  0
    5.8520   -2.2200   19.6310 C   0  0  0  0  0  0  0  0  0  0  0  0
    5.5020   -3.3080   19.2650 O   0  0  0  0  0  0  0  0  0  0  0  0
    5.4980   -0.9920   18.8090 C   0  0  0  0  0  0  0  0  0  0  0  0
    6.9460    0.0220   18.6030 Cl  0  0  0  0  0  0  0  0  0  0  0  0
    6.9910   -0.7360   21.2480 C   0  0  0  0  0  0  0  0  0  0  0  0
    7.0390   -0.6240   22.7640 C   0  0  0  0  0  0  0  0  0  0  0  0
    9.4040   -3.3490   25.1300 C   0  0  0  0  0  0  0  0  0  0  0  0
    9.9020   -4.4830   25.7650 C   0  0  0  0  0  0  0  0  0  0  0  0
    9.1670   -5.0650   26.7920 C   0  0  0  0  0  0  0  0  0  0  0  0
    7.9430   -4.5440   27.2020 C   0  0  0  0  0  0  0  0  0  0  0  0
  1  2  1  0
  2  3  2  0
  2  4  1  0
  4  5  1  0
  5  6  1  0
  6  7  1  0
  7  8  2  0
  7 38  1  0
  8  9  1  0
  9 10  1  0
 10 11  1  0
 10 38  2  0
 11 12  1  0
 11 35  2  0
 12 13  1  0
 12 25  1  0
 13 14  1  0
 14 15  1  0
 15 16  2  0
 15 24  1  0
 16 17  1  0
 17 18  2  0
 18 19  1  0
 18 23  1  0
 19 20  1  0
 19 21  1  0
 19 22  1  0
 23 24  2  0
 25 26  1  0
 25 34  1  0
 26 27  1  0
 27 28  1  0
 28 29  1  0
 28 33  1  0
 29 30  2  0
 29 31  1  0
 31 32  1  0
 33 34  1  0
 35 36  1  0
 36 37  2  0
 37 38  1  0
M  CHG  1  25   1
M  END
>  <index>  (2)
ligand513

>  <Name>  (2)
PAU-WEI-b9b-9

>  <ChemPlp>  (2)
-109.712

>  <MM-GBSA Nwat=0>  (2)
-42.293701

>  <STDEV0>  (2)
4.8564

>  <MM-GBSA Nwat=30>  (2)
-77.646698

>  <STDEV30>  (2)
7.3639002

>  <MM-GBSA Nwat=60>  (2)
-93.012604

>  <STDEV60>  (2)
7.1343002

>  <ST.DEV < 10%>  (2)
Y

>  <RMSD LIG < 2>  (2)
Y

>  <DIST < 5>  (2)
Y

>  <DIST < 3.5>  (2)
N

>  <ref_pdb>  (2)
x0830_0

>  <ref_mols>  (2)
x0104_0,x0305_0,x0770_0,x1380_0,x1385_0

>  <original SMILES>  (2)
CC(=O)NCCc1c[nH]c2c(C(CCc3ccc(C(F)(F)F)cc3)N3CCN(C(=O)CCl)CC3)cccc12

$$$$
PAU-WEI-f734c343-1
     RDKit          3D

 32 35  0  0  1  0  0  0  0  0999 V2000
    5.0960   -6.8360   30.7920 C   0  0  0  0  0  0  0  0  0  0  0  0
    5.8250   -5.9470   29.7970 C   0  0  0  0  0  0  0  0  0  0  0  0
    6.4950   -5.0320   30.1880 O   0  0  0  0  0  0  0  0  0  0  0  0
    5.7160   -6.1910   28.4530 N   0  0  0  0  0  0  0  0  0  0  0  0
    6.4200   -5.3320   27.4910 C   0  0  0  0  0  0  0  0  0  0  0  0
    7.9050   -5.3150   27.8180 C   0  0  0  0  0  0  0  0  0  0  0  0
    8.6590   -4.5960   26.7110 C   0  0  0  0  0  0  0  0  0  0  0  0
    9.4790   -5.1940   25.7980 C   0  0  0  0  0  0  0  0  0  0  0  0
    9.9660   -4.2170   24.9800 N   0  0  0  0  0  0  0  0  0  0  0  0
    9.4510   -3.0160   25.3790 C   0  0  0  0  0  0  0  0  0  0  0  0
    9.6570   -1.7460   24.8550 C   0  0  0  0  0  0  0  0  0  0  0  0
   10.5710   -1.5440   23.6580 C   0  0  0  0  0  0  0  0  0  0  0  0
   11.2480   -0.1870   23.7600 C   0  0  0  0  0  0  0  0  0  0  0  0
   11.8080    0.3620   24.8710 C   0  0  0  0  0  0  0  0  0  0  0  0
   12.3750    1.6510   24.6890 C   0  0  0  0  0  0  0  0  0  0  0  0
   12.2660    2.1250   23.4180 C   0  0  0  0  0  0  0  0  0  0  0  0
   12.9140    3.8440   22.7370 Br  0  0  0  0  0  0  0  0  0  0  0  0
   11.4580    0.9430   22.5040 S   0  0  0  0  0  0  0  0  0  0  0  0
    9.7790   -1.6050   22.4210 N   0  0  0  0  0  0  0  0  0  0  0  0
    9.0630   -2.8920   22.4320 C   0  0  0  0  0  0  0  0  0  0  0  0
    8.1640   -3.0510   21.2140 C   0  0  0  0  0  0  0  0  0  0  0  0
    7.3840   -1.8310   20.9550 N   0  0  0  0  0  0  0  0  0  0  0  0
    6.1040   -1.9620   20.4040 C   0  0  0  0  0  0  0  0  0  0  0  0
    5.6680   -3.0520   20.1540 O   0  0  0  0  0  0  0  0  0  0  0  0
    5.2680   -0.7250   20.1230 C   0  0  0  0  0  0  0  0  0  0  0  0
    5.8010    0.0170   18.5950 Cl  0  0  0  0  0  0  0  0  0  0  0  0
    7.8900   -0.4840   21.2650 C   0  0  0  0  0  0  0  0  0  0  0  0
    8.8130   -0.4950   22.4750 C   0  0  0  0  0  0  0  0  0  0  0  0
    9.0320   -0.6370   25.4160 C   0  0  0  0  0  0  0  0  0  0  0  0
    8.1940   -0.8130   26.5130 C   0  0  0  0  0  0  0  0  0  0  0  0
    8.0000   -2.0930   27.0230 C   0  0  0  0  0  0  0  0  0  0  0  0
    8.6240   -3.2050   26.4630 C   0  0  0  0  0  0  0  0  0  0  0  0
  1  2  1  0
  2  3  2  0
  2  4  1  0
  4  5  1  0
  5  6  1  0
  6  7  1  0
  7  8  2  0
  7 32  1  0
  8  9  1  0
  9 10  1  0
 10 11  1  0
 10 32  2  0
 11 12  1  0
 11 29  2  0
 12 13  1  0
 12 19  1  0
 13 14  2  0
 13 18  1  0
 14 15  1  0
 15 16  2  0
 16 17  1  0
 16 18  1  0
 19 20  1  0
 19 28  1  0
 20 21  1  0
 21 22  1  0
 22 23  1  0
 22 27  1  0
 23 24  2  0
 23 25  1  0
 25 26  1  0
 27 28  1  0
 29 30  1  0
 30 31  2  0
 31 32  1  0
M  CHG  1  19   1
M  END
>  <index>  (3)
ligand515

>  <Name>  (3)
PAU-WEI-f73-1

>  <ChemPlp>  (3)
-101.073

>  <MM-GBSA Nwat=0>  (3)
-38.8862

>  <STDEV0>  (3)
5.3589001

>  <MM-GBSA Nwat=30>  (3)
-77.167603

>  <STDEV30>  (3)
5.5984998

>  <MM-GBSA Nwat=60>  (3)
-84.075401

>  <STDEV60>  (3)
5.6447001

>  <ST.DEV < 10%>  (3)
Y

>  <RMSD LIG < 2>  (3)
Y

>  <DIST < 5>  (3)
Y

>  <DIST < 3.5>  (3)
N

>  <ref_pdb>  (3)
x0830_0

>  <ref_mols>  (3)
x0104_0,x0305_0,x0830_0,x1249_0,x1385_0

>  <original SMILES>  (3)
CC(=O)NCCc1c[nH]c2c(C(c3ccc(Br)s3)N3CCN(C(=O)CCl)CC3)cccc12

$$$$
MAK-UNK-af83ef51-21
     RDKit          3D

 30 32  0  0  1  0  0  0  0  0999 V2000
    8.1050    6.9660   22.9040 C   0  0  0  0  0  0  0  0  0  0  0  0
    9.3140    6.3560   23.5930 C   0  0  0  0  0  0  0  0  0  0  0  0
    9.7210    5.1360   22.8800 N   0  0  0  0  0  0  0  0  0  0  0  0
   10.8490    4.5110   23.5840 C   0  0  0  0  0  0  0  0  0  0  0  0
   10.9430    3.0400   23.2140 C   0  0  0  0  0  0  0  0  0  0  0  0
   12.1080    2.3870   23.9410 C   0  0  0  0  0  0  0  0  0  0  0  0
   12.2000    0.9180   23.5620 C   0  0  0  0  0  0  0  0  0  0  0  0
   13.2390    0.4850   22.7450 C   0  0  0  0  0  0  0  0  0  0  0  0
   13.3160   -0.8610   22.4020 C   0  0  0  0  0  0  0  0  0  0  0  0
   12.3700   -1.7700   22.8640 C   0  0  0  0  0  0  0  0  0  0  0  0
   11.3390   -1.3160   23.6800 C   0  0  0  0  0  0  0  0  0  0  0  0
   10.2970   -2.2950   24.1960 C   0  0  0  0  0  0  0  0  0  0  0  0
    9.6030   -2.9170   23.0590 N   0  0  0  0  0  0  0  0  0  0  0  0
    8.5080   -3.7290   23.6150 C   0  0  0  0  0  0  0  0  0  0  0  0
    7.6820   -4.3910   22.5220 C   0  0  0  0  0  0  0  0  0  0  0  0
    7.3580   -3.4460   21.4430 N   0  0  0  0  0  0  0  0  0  0  0  0
    6.1400   -3.5950   20.7680 C   0  0  0  0  0  0  0  0  0  0  0  0
    5.3890   -4.4790   21.0750 O   0  0  0  0  0  0  0  0  0  0  0  0
    5.7710   -2.6380   19.6470 C   0  0  0  0  0  0  0  0  0  0  0  0
    5.8320   -0.9640   20.2510 Cl  0  0  0  0  0  0  0  0  0  0  0  0
    8.2560   -2.3460   21.0550 C   0  0  0  0  0  0  0  0  0  0  0  0
    9.0500   -1.8230   22.2430 C   0  0  0  0  0  0  0  0  0  0  0  0
   11.2440    0.0260   24.0350 C   0  0  0  0  0  0  0  0  0  0  0  0
   13.4000    3.0980   23.5700 C   0  0  0  0  0  0  0  0  0  0  0  0
   13.3160    4.5700   23.9400 C   0  0  0  0  0  0  0  0  0  0  0  0
   14.5250    5.2310   23.5980 O   0  0  0  0  0  0  0  0  0  0  0  0
   12.1450    5.2190   23.2210 C   0  0  0  0  0  0  0  0  0  0  0  0
   12.0620    6.5930   23.5700 O   0  0  0  0  0  0  0  0  0  0  0  0
   11.9500    6.7180   24.9800 C   0  0  0  0  0  0  0  0  0  0  0  0
   11.8600    6.8180   26.1120 N   0  0  0  0  0  0  0  0  0  0  0  0
  1  2  1  0
  2  3  1  0
  3  4  1  0
  4  5  1  0
  4 27  1  0
  5  6  1  0
  6  7  1  0
  6 24  1  0
  7  8  2  0
  7 23  1  0
  8  9  1  0
  9 10  2  0
 10 11  1  0
 11 12  1  0
 11 23  2  0
 12 13  1  0
 13 14  1  0
 13 22  1  0
 14 15  1  0
 15 16  1  0
 16 17  1  0
 16 21  1  0
 17 18  2  0
 17 19  1  0
 19 20  1  0
 21 22  1  0
 24 25  1  0
 25 26  1  0
 25 27  1  0
 27 28  1  0
 28 29  1  0
 29 30  3  0
M  CHG  2   3   1  13   1
M  END
>  <index>  (4)
ligand365

>  <Name>  (4)
MAK-UNK-af8-21

>  <ChemPlp>  (4)
-104.899

>  <MM-GBSA Nwat=0>  (4)
-27.528601

>  <STDEV0>  (4)
3.2128

>  <MM-GBSA Nwat=30>  (4)
-71.9748

>  <STDEV30>  (4)
5.0915999

>  <MM-GBSA Nwat=60>  (4)
-81.196899

>  <STDEV60>  (4)
5.2883

>  <ST.DEV < 10%>  (4)
Y

>  <RMSD LIG < 2>  (4)
Y

>  <DIST < 5>  (4)
Y

>  <DIST < 3.5>  (4)
N

>  <ref_pdb>  (4)
x0830_0

>  <ref_mols>  (4)
x0072_0,x0104_0,x0161_0,x0195_0,x0305_0,x0387_0,x0692_0

>  <original SMILES>  (4)
CCNC1CC(c2cccc(CN3CCN(C(=O)CCl)CC3)c2)CC(O)C1OC#N

$$$$